Version 4
SHEET 1 2684 804
WIRE -1280 -96 -1296 -96
WIRE -1264 -96 -1280 -96
WIRE -1168 -96 -1184 -96
WIRE -672 -96 -688 -96
WIRE -496 -96 -592 -96
WIRE -384 -96 -496 -96
WIRE -304 -96 -384 -96
WIRE 560 -96 512 -96
WIRE 688 -96 640 -96
WIRE -1168 -64 -1168 -96
WIRE -1072 -64 -1168 -64
WIRE -496 -48 -496 -96
WIRE -384 -48 -384 -96
WIRE -1280 -32 -1280 -96
WIRE -1072 -32 -1280 -32
WIRE 400 -32 384 -32
WIRE 512 -32 512 -96
WIRE 512 -32 480 -32
WIRE -848 -16 -896 -16
WIRE -688 -16 -688 -96
WIRE -688 -16 -784 -16
WIRE -208 -16 -224 -16
WIRE -96 -16 -128 -16
WIRE -32 -16 -96 -16
WIRE 96 -16 48 -16
WIRE 208 -16 176 -16
WIRE -1072 0 -1120 0
WIRE -1264 16 -1280 16
WIRE -1120 16 -1120 0
WIRE -1120 16 -1184 16
WIRE 512 16 512 -32
WIRE 560 16 512 16
WIRE 688 32 688 -96
WIRE 688 32 624 32
WIRE 720 32 688 32
WIRE 832 32 800 32
WIRE 1008 32 832 32
WIRE 1296 32 1008 32
WIRE 560 48 512 48
WIRE -496 64 -496 16
WIRE -384 64 -384 32
WIRE -384 64 -496 64
WIRE 1008 64 1008 32
WIRE 1296 64 1296 32
WIRE -496 96 -496 64
WIRE -96 96 -96 -16
WIRE -32 96 -96 96
WIRE 208 112 208 -16
WIRE 208 112 32 112
WIRE 400 112 208 112
WIRE 512 112 512 48
WIRE 512 112 480 112
WIRE -304 128 -304 -96
WIRE -208 128 -304 128
WIRE -32 128 -128 128
WIRE 832 144 832 32
WIRE 832 144 784 144
WIRE 512 160 512 112
WIRE 528 160 512 160
WIRE 656 160 608 160
WIRE 720 160 656 160
WIRE 832 176 784 176
WIRE 1296 176 1296 144
WIRE 1008 208 1008 192
WIRE 656 240 656 160
WIRE 832 240 832 176
WIRE 832 240 656 240
WIRE -1376 384 -1376 368
WIRE -1248 384 -1248 368
WIRE -1376 480 -1376 464
WIRE -1248 480 -1248 464
FLAG -1376 480 0
FLAG -1248 480 0
FLAG -1376 368 vcc
FLAG -1248 368 vss
FLAG 1296 176 0
FLAG 384 -32 0
FLAG 592 64 vss
FLAG 752 128 vss
FLAG 592 0 vcc
FLAG 752 192 vcc
FLAG 0 144 vss
FLAG 0 80 vcc
FLAG -224 -16 0
FLAG -496 96 0
FLAG -1280 16 0
FLAG -1296 -96 0
FLAG 1008 208 0
SYMBOL res 384 96 M90
WINDOW 0 0 56 VBottom 2
WINDOW 3 32 56 VTop 2
SYMATTR InstName R2
SYMATTR Value 10k
SYMBOL res 656 -112 R90
WINDOW 0 0 56 VBottom 2
WINDOW 3 32 56 VTop 2
SYMATTR InstName R3
SYMATTR Value 10k
SYMBOL res 704 16 M90
WINDOW 0 0 56 VBottom 2
WINDOW 3 32 56 VTop 2
SYMATTR InstName R4
SYMATTR Value 33k
SYMBOL res 624 176 M270
WINDOW 0 32 56 VTop 2
WINDOW 3 0 56 VBottom 2
SYMATTR InstName R5
SYMATTR Value 10k
SYMBOL res 1312 48 M0
SYMATTR InstName Rload
SYMATTR Value 1
SYMBOL voltage -1376 368 R0
SYMATTR InstName V3
SYMATTR Value 5
SYMBOL voltage -1248 368 R0
SYMATTR InstName V4
SYMATTR Value -5
SYMBOL res 496 -48 R90
WINDOW 0 0 56 VBottom 2
WINDOW 3 32 56 VTop 2
SYMATTR InstName R1
SYMATTR Value 10k
SYMBOL OpAmps\\LT1007 592 -32 R0
SYMATTR InstName U3
SYMBOL OpAmps\\LT1007 752 224 R180
SYMATTR InstName U4
SYMBOL res -688 -112 M90
WINDOW 0 0 56 VBottom 2
WINDOW 3 32 56 VTop 2
SYMATTR InstName R6
SYMATTR Value 50
SYMBOL cap -512 -48 R0
SYMATTR InstName C1
SYMATTR Value 47n
SYMBOL ind -400 -64 R0
SYMATTR InstName L1
SYMATTR Value 51µ
SYMBOL res 64 -32 R90
WINDOW 0 0 56 VBottom 2
WINDOW 3 32 56 VTop 2
SYMATTR InstName R7
SYMATTR Value 10k
SYMBOL res -112 -32 R90
WINDOW 0 0 56 VBottom 2
WINDOW 3 32 56 VTop 2
SYMATTR InstName R8
SYMATTR Value 10k
SYMBOL SpecialFunctions\\sample -992 -32 R0
SYMATTR InstName A1
SYMBOL voltage -1168 -96 R90
WINDOW 0 -27 18 VLeft 2
WINDOW 3 187 127 VLeft 2
WINDOW 123 0 0 Left 0
WINDOW 39 0 0 Left 0
SYMATTR InstName V1
SYMATTR Value SINE(1.65 1.65 100k)
SYMBOL voltage -1168 16 R90
WINDOW 0 -24 12 VLeft 2
WINDOW 3 105 130 VLeft 2
WINDOW 123 0 0 Left 0
WINDOW 39 0 0 Left 0
SYMATTR InstName V5
SYMATTR Value PULSE(0 5 0 1n 1n 200n 400n)
SYMBOL res 192 -32 R90
WINDOW 0 0 56 VBottom 2
WINDOW 3 32 56 VTop 2
SYMATTR InstName pot
SYMATTR Value 100
SYMBOL zener 1024 192 R180
WINDOW 0 24 64 Left 2
WINDOW 3 24 0 Left 2
SYMATTR InstName D2
SYMATTR Value 1N750
SYMATTR Description Diode
SYMATTR Type diode
SYMBOL zener 992 64 R0
SYMATTR InstName D1
SYMATTR Value 1N750
SYMATTR Description Diode
SYMATTR Type diode
SYMBOL OpAmps\\LT1007 0 48 R0
SYMATTR InstName U2
SYMBOL res -224 112 M90
WINDOW 0 0 56 VBottom 2
WINDOW 3 32 56 VTop 2
SYMATTR InstName R9
SYMATTR Value 50
SYMBOL diode -848 0 R270
WINDOW 0 32 32 VTop 2
WINDOW 3 0 32 VBottom 2
SYMATTR InstName D3
SYMATTR Value 1N4148
TEXT -1376 280 Left 2 !.tran 1m
TEXT 376 224 Left 2 ;Imax= Vin / R4
TEXT -688 136 Left 2 ;https://rf-tools.com/lc-filter/
TEXT -688 168 Left 2 ;bandpass chebyshev 90k-110k
TEXT -1296 224 Left 2 ;12bit(4096) stepping is verwaarloosd
TEXT -1296 192 Left 2 ;DAC simulator, 3.3V DC sinus
TEXT -688 200 Left 2 ;1st order, conventional shunt first
TEXT -688 232 Left 2 ;50ohm impedance
TEXT -240 224 Left 2 ;filter compensatie
TEXT -408 280 Left 2 ;optioneel, probleem met ringing
TEXT 920 256 Left 2 ;ESD bescherming
RECTANGLE Normal -752 256 -1344 -144 2
RECTANGLE Normal -272 256 -720 -144 2
RECTANGLE Normal 288 256 -256 -144 2
RECTANGLE Normal 304 304 -736 -176 2
RECTANGLE Normal 880 256 320 -144 2
