Version 4
SHEET 1 1572 680
WIRE 1136 -272 1088 -272
WIRE 1264 -272 1216 -272
WIRE 192 -224 144 -224
WIRE 320 -224 272 -224
WIRE 976 -208 960 -208
WIRE 1088 -208 1088 -272
WIRE 1088 -208 1056 -208
WIRE 32 -160 16 -160
WIRE 144 -160 144 -224
WIRE 144 -160 112 -160
WIRE 1088 -144 1088 -208
WIRE 1136 -144 1088 -144
WIRE 1264 -128 1264 -272
WIRE 1264 -128 1200 -128
WIRE 1296 -128 1264 -128
WIRE 1408 -128 1376 -128
WIRE 1552 -128 1408 -128
WIRE 1136 -112 1088 -112
WIRE 144 -96 144 -160
WIRE 192 -96 144 -96
WIRE 1552 -96 1552 -128
WIRE 320 -80 320 -224
WIRE 320 -80 256 -80
WIRE 352 -80 320 -80
WIRE 464 -80 432 -80
WIRE 608 -80 464 -80
WIRE 192 -64 144 -64
WIRE 608 -48 608 -80
WIRE 768 -48 752 -48
WIRE 976 -48 848 -48
WIRE 1088 -48 1088 -112
WIRE 1088 -48 1056 -48
WIRE -176 0 -192 0
WIRE 32 0 -96 0
WIRE 144 0 144 -64
WIRE 144 0 112 0
WIRE 1552 16 1552 -16
WIRE 1408 32 1408 -128
WIRE 1408 32 1360 32
WIRE 1088 48 1088 -48
WIRE 1104 48 1088 48
WIRE 1264 48 1184 48
WIRE 1296 48 1264 48
WIRE 608 64 608 32
WIRE 1408 64 1360 64
WIRE 144 96 144 0
WIRE 160 96 144 96
WIRE 464 96 464 -80
WIRE 464 96 240 96
WIRE 1264 128 1264 48
WIRE 1408 128 1408 64
WIRE 1408 128 1264 128
WIRE -128 256 -128 240
WIRE 0 256 0 240
WIRE -128 352 -128 336
WIRE 0 352 0 336
FLAG -128 352 0
FLAG 0 352 0
FLAG -128 240 vcc
FLAG 0 240 vss
FLAG 608 64 0
FLAG 16 -160 0
FLAG 224 -48 vss
FLAG 224 -112 vcc
FLAG -192 0 0
FLAG 1552 16 0
FLAG 960 -208 0
FLAG 1168 -96 vss
FLAG 1168 -160 vcc
FLAG 752 -48 0
FLAG 1328 16 vss
FLAG 1328 80 vcc
SYMBOL res 16 -16 M90
WINDOW 0 0 56 VBottom 2
WINDOW 3 32 56 VTop 2
SYMATTR InstName R2
SYMATTR Value 10k
SYMBOL res 288 -240 R90
WINDOW 0 0 56 VBottom 2
WINDOW 3 32 56 VTop 2
SYMATTR InstName R3
SYMATTR Value 10k
SYMBOL res 336 -64 R270
WINDOW 0 32 56 VTop 2
WINDOW 3 0 56 VBottom 2
SYMATTR InstName R4
SYMATTR Value 2k
SYMBOL res 144 112 R270
WINDOW 0 32 56 VTop 2
WINDOW 3 0 56 VBottom 2
SYMATTR InstName R5
SYMATTR Value 10k
SYMBOL res 624 -64 M0
SYMATTR InstName Rload
SYMATTR Value 1
SYMBOL voltage -128 240 R0
SYMATTR InstName V3
SYMATTR Value 5
SYMBOL voltage 0 240 R0
SYMATTR InstName V4
SYMATTR Value -5
SYMBOL res 128 -176 R90
WINDOW 0 0 56 VBottom 2
WINDOW 3 32 56 VTop 2
SYMATTR InstName R1
SYMATTR Value 10k
SYMBOL OpAmps\\LT1007 224 -144 R0
SYMATTR InstName U3
SYMBOL voltage -80 0 M270
WINDOW 0 -32 56 VBottom 2
WINDOW 3 32 56 VTop 2
WINDOW 123 0 0 Left 0
WINDOW 39 0 0 Left 0
SYMATTR InstName V2
SYMATTR Value PULSE(0 1 0 1m 0 1m)
SYMBOL res 960 -64 M90
WINDOW 0 0 56 VBottom 2
WINDOW 3 32 56 VTop 2
SYMATTR InstName R6
SYMATTR Value 10k
SYMBOL res 1232 -288 R90
WINDOW 0 0 56 VBottom 2
WINDOW 3 32 56 VTop 2
SYMATTR InstName R7
SYMATTR Value 10k
SYMBOL res 1280 -112 R270
WINDOW 0 32 56 VTop 2
WINDOW 3 0 56 VBottom 2
SYMATTR InstName R8
SYMATTR Value 2k
SYMBOL res 1088 64 R270
WINDOW 0 32 56 VTop 2
WINDOW 3 0 56 VBottom 2
SYMATTR InstName R9
SYMATTR Value 10k
SYMBOL res 1568 -112 M0
SYMATTR InstName Rload1
SYMATTR Value 1
SYMBOL res 1072 -224 R90
WINDOW 0 0 56 VBottom 2
WINDOW 3 32 56 VTop 2
SYMATTR InstName R10
SYMATTR Value 10k
SYMBOL OpAmps\\LT1007 1168 -192 R0
SYMATTR InstName U1
SYMBOL voltage 864 -48 M270
WINDOW 0 -32 56 VBottom 2
WINDOW 3 32 56 VTop 2
WINDOW 123 0 0 Left 0
WINDOW 39 0 0 Left 0
SYMATTR InstName V1
SYMATTR Value PULSE(0 1 0 1m 0 1m)
SYMBOL OpAmps\\LT1007 1328 112 R180
SYMATTR InstName U2
TEXT -560 360 Left 2 !.tran 1m
TEXT 392 -184 Left 2 ;Imax= Vin / R4
TEXT -560 296 Left 2 ;https://rf-tools.com/lc-filter/
TEXT -560 328 Left 2 ;bandpass chebyshev 90k-110k
TEXT 1336 -232 Left 2 ;Imax= Vin / R4
