Version 4
SHEET 1 4548 1444
WIRE 464 -416 416 -416
WIRE 592 -416 544 -416
WIRE -160 -400 -384 -400
WIRE -16 -400 -80 -400
WIRE -1184 -384 -1184 -400
WIRE -1056 -384 -1056 -400
WIRE 304 -352 288 -352
WIRE 416 -352 416 -416
WIRE 416 -352 384 -352
WIRE 416 -304 416 -352
WIRE 464 -304 416 -304
WIRE -1184 -288 -1184 -304
WIRE -1056 -288 -1056 -304
WIRE 592 -288 592 -416
WIRE 592 -288 528 -288
WIRE 624 -288 592 -288
WIRE 736 -288 704 -288
WIRE 960 -288 960 -320
WIRE 960 -288 736 -288
WIRE 992 -288 960 -288
WIRE 1104 -288 1104 -320
WIRE 1104 -288 1072 -288
WIRE 1360 -288 1104 -288
WIRE 1648 -288 1360 -288
WIRE -480 -272 -528 -272
WIRE -384 -272 -384 -400
WIRE -384 -272 -416 -272
WIRE -368 -272 -384 -272
WIRE -272 -272 -304 -272
WIRE -160 -272 -272 -272
WIRE 464 -272 416 -272
WIRE -48 -256 -96 -256
WIRE -16 -256 -16 -400
WIRE -16 -256 -48 -256
WIRE 32 -256 -16 -256
WIRE 1360 -256 1360 -288
WIRE -272 -240 -272 -272
WIRE -160 -240 -192 -240
WIRE 1648 -240 1648 -288
WIRE 304 -208 112 -208
WIRE 416 -208 416 -272
WIRE 416 -208 384 -208
WIRE 736 -176 736 -288
WIRE 736 -176 688 -176
WIRE 416 -160 416 -208
WIRE 432 -160 416 -160
WIRE 560 -160 512 -160
WIRE 624 -160 560 -160
WIRE -192 -144 -192 -240
WIRE -144 -144 -192 -144
WIRE -48 -144 -48 -256
WIRE -48 -144 -64 -144
WIRE 736 -144 688 -144
WIRE -272 -128 -272 -160
WIRE 1648 -128 1648 -160
WIRE -192 -112 -192 -144
WIRE 1360 -112 1360 -128
WIRE -1168 -96 -1184 -96
WIRE -1152 -96 -1168 -96
WIRE -1056 -96 -1072 -96
WIRE 560 -80 560 -160
WIRE 736 -80 736 -144
WIRE 736 -80 560 -80
WIRE -1056 -64 -1056 -96
WIRE -960 -64 -1056 -64
WIRE -1168 -32 -1168 -96
WIRE -960 -32 -1168 -32
WIRE -528 -16 -528 -272
WIRE -528 -16 -784 -16
WIRE -960 0 -1008 0
WIRE -192 0 -192 -32
WIRE -1152 16 -1168 16
WIRE -1008 16 -1008 0
WIRE -1008 16 -1072 16
WIRE 32 64 32 -256
WIRE 32 64 -560 64
WIRE -176 144 -416 144
WIRE -48 144 -112 144
WIRE 528 176 496 176
WIRE 640 176 608 176
WIRE 896 208 880 208
WIRE 1008 208 976 208
WIRE 1040 208 1008 208
WIRE 1152 208 1120 208
WIRE -560 272 -560 64
WIRE -528 272 -560 272
WIRE -416 272 -416 144
WIRE -416 272 -448 272
WIRE -400 272 -416 272
WIRE -304 272 -320 272
WIRE -192 272 -304 272
WIRE 384 272 336 272
WIRE 496 272 496 176
WIRE 496 272 464 272
WIRE -80 288 -128 288
WIRE -48 288 -48 144
WIRE -48 288 -80 288
WIRE 112 288 112 -208
WIRE 112 288 -48 288
WIRE -192 304 -224 304
WIRE 1056 320 1056 304
WIRE -304 336 -304 272
WIRE 496 336 496 272
WIRE 528 336 496 336
WIRE 1008 336 1008 208
WIRE 1024 336 1008 336
WIRE 640 352 640 176
WIRE 640 352 592 352
WIRE 752 352 640 352
WIRE 1184 352 1088 352
WIRE 384 368 336 368
WIRE 496 368 464 368
WIRE 528 368 496 368
WIRE 896 368 816 368
WIRE 1024 368 896 368
WIRE 752 384 720 384
WIRE -224 400 -224 304
WIRE -192 400 -224 400
WIRE -80 400 -80 288
WIRE -80 400 -112 400
WIRE 1056 400 1056 384
WIRE -304 416 -304 400
WIRE -224 432 -224 400
WIRE 496 432 496 368
WIRE 720 512 720 384
WIRE 768 512 720 512
WIRE 896 512 896 368
WIRE 896 512 848 512
WIRE -224 528 -224 512
WIRE 496 544 496 512
WIRE 720 544 720 512
WIRE 720 656 720 624
FLAG -1184 -288 0
FLAG -1056 -288 0
FLAG -1184 -400 vcc
FLAG -1056 -400 vss
FLAG 1648 -128 0
FLAG 288 -352 0
FLAG 496 -256 vss
FLAG 656 -192 vss
FLAG 496 -320 vcc
FLAG 656 -128 vcc
FLAG -1168 16 0
FLAG -1184 -96 0
FLAG 1360 -112 0
FLAG -128 -288 vss
FLAG -128 -224 vcc
FLAG -272 -128 0
FLAG -160 256 vss
FLAG -160 320 vcc
FLAG -304 416 0
FLAG -192 0 0
FLAG -224 528 0
FLAG 496 544 0
FLAG 560 384 vss
FLAG 560 320 vcc
FLAG 784 336 vss
FLAG 784 400 vcc
FLAG 720 656 0
FLAG 1056 400 0
FLAG 1056 304 vcc
FLAG 1152 208 0
FLAG 880 208 vcc
FLAG 960 -320 vshunt+
FLAG 336 368 vshunt+
FLAG 336 272 vshunt-
FLAG 1104 -320 vshunt-
FLAG 1184 352 IRQ
SYMBOL res 288 -224 M90
WINDOW 0 0 56 VBottom 2
WINDOW 3 32 56 VTop 2
SYMATTR InstName R2
SYMATTR Value 10k
SYMBOL res 560 -432 R90
WINDOW 0 0 56 VBottom 2
WINDOW 3 32 56 VTop 2
SYMATTR InstName R3
SYMATTR Value 10k
SYMBOL res 608 -304 M90
WINDOW 0 0 56 VBottom 2
WINDOW 3 32 56 VTop 2
SYMATTR InstName R4
SYMATTR Value 11k6
SYMBOL res 528 -144 M270
WINDOW 0 32 56 VTop 2
WINDOW 3 0 56 VBottom 2
SYMATTR InstName R5
SYMATTR Value 10k
SYMBOL res 1664 -256 M0
SYMATTR InstName Rskin
SYMATTR Value 1k
SYMBOL voltage -1184 -400 R0
SYMATTR InstName V3
SYMATTR Value 5
SYMBOL voltage -1056 -400 R0
SYMATTR InstName V4
SYMATTR Value -5
SYMBOL res 400 -368 R90
WINDOW 0 0 56 VBottom 2
WINDOW 3 32 56 VTop 2
SYMATTR InstName R1
SYMATTR Value 10k
SYMBOL OpAmps\\LT1007 496 -352 R0
SYMATTR InstName U3
SYMBOL OpAmps\\LT1007 656 -96 R180
SYMATTR InstName U4
SYMBOL SpecialFunctions\\sample -880 -32 R0
SYMATTR InstName A1
SYMBOL voltage -1056 -96 R90
WINDOW 0 -27 18 VLeft 2
WINDOW 3 187 127 VLeft 2
WINDOW 123 0 0 Left 0
WINDOW 39 0 0 Left 0
SYMATTR InstName V1
SYMATTR Value SINE(1.65 1.65 100k)
SYMBOL voltage -1056 16 R90
WINDOW 0 -24 12 VLeft 2
WINDOW 3 105 130 VLeft 2
WINDOW 123 0 0 Left 0
WINDOW 39 0 0 Left 0
SYMATTR InstName V5
SYMATTR Value PULSE(0 5 0 1n 1n 200n 400n)
SYMBOL zener 1376 -128 R180
WINDOW 0 24 64 Left 2
WINDOW 3 24 0 Left 2
SYMATTR InstName D2
SYMATTR Value 1N750
SYMATTR Description Diode
SYMATTR Type diode
SYMBOL zener 1344 -256 R0
SYMATTR InstName D1
SYMATTR Value 1N750
SYMATTR Description Diode
SYMATTR Type diode
SYMBOL OpAmps\\LT1007 -128 -192 M180
SYMATTR InstName U1
SYMBOL res -288 -256 R0
SYMATTR InstName R6
SYMATTR Value 15k
SYMBOL cap -304 -288 R90
WINDOW 0 0 32 VBottom 2
WINDOW 3 32 32 VTop 2
SYMATTR InstName C1
SYMATTR Value 100p
SYMBOL cap -416 -288 R90
WINDOW 0 0 32 VBottom 2
WINDOW 3 32 32 VTop 2
SYMATTR InstName C2
SYMATTR Value 100p
SYMBOL res -64 -416 R90
WINDOW 0 0 56 VBottom 2
WINDOW 3 32 56 VTop 2
SYMATTR InstName R7
SYMATTR Value 15k
SYMBOL OpAmps\\LT1007 -160 352 M180
SYMATTR InstName U2
SYMBOL res -432 256 R90
WINDOW 0 0 56 VBottom 2
WINDOW 3 32 56 VTop 2
SYMATTR InstName R8
SYMATTR Value 18k
SYMBOL cap -112 128 R90
WINDOW 0 0 32 VBottom 2
WINDOW 3 32 32 VTop 2
SYMATTR InstName C3
SYMATTR Value 100p
SYMBOL cap -288 400 R180
WINDOW 0 24 56 Left 2
WINDOW 3 24 8 Left 2
SYMATTR InstName C4
SYMATTR Value 100p
SYMBOL res -304 256 R90
WINDOW 0 0 56 VBottom 2
WINDOW 3 32 56 VTop 2
SYMATTR InstName R9
SYMATTR Value 18k
SYMBOL res -96 384 R90
WINDOW 0 0 56 VBottom 2
WINDOW 3 32 56 VTop 2
SYMATTR InstName R10
SYMATTR Value 5k6
SYMBOL res -48 -160 R90
WINDOW 0 0 56 VBottom 2
WINDOW 3 32 56 VTop 2
SYMATTR InstName R11
SYMATTR Value 6k8
SYMBOL res -176 -16 R180
WINDOW 0 36 76 Left 2
WINDOW 3 36 40 Left 2
SYMATTR InstName R12
SYMATTR Value 10k
SYMBOL res -240 416 R0
SYMATTR InstName R13
SYMATTR Value 10k
SYMBOL res 976 -272 R270
WINDOW 0 32 56 VTop 2
WINDOW 3 0 56 VBottom 2
SYMATTR InstName SHUNT
SYMATTR Value 0.1
SYMBOL res 624 160 R90
WINDOW 0 0 56 VBottom 2
WINDOW 3 32 56 VTop 2
SYMATTR InstName R20
SYMATTR Value 100k
SYMBOL res 480 256 R90
WINDOW 0 0 56 VBottom 2
WINDOW 3 32 56 VTop 2
SYMATTR InstName R21
SYMATTR Value 100
SYMBOL res 480 352 R90
WINDOW 0 0 56 VBottom 2
WINDOW 3 32 56 VTop 2
SYMATTR InstName R22
SYMATTR Value 100
SYMBOL res 512 528 R180
WINDOW 0 36 76 Left 2
WINDOW 3 36 40 Left 2
SYMATTR InstName R23
SYMATTR Value 100k
SYMBOL OpAmps\\LT1007 560 288 R0
SYMATTR InstName U8
SYMBOL OpAmps\\LT1007 784 432 M180
SYMATTR InstName U5
SYMBOL res 864 496 R90
WINDOW 0 0 56 VBottom 2
WINDOW 3 32 56 VTop 2
SYMATTR InstName R14
SYMATTR Value 100k
SYMBOL res 736 640 R180
WINDOW 0 36 76 Left 2
WINDOW 3 36 40 Left 2
SYMATTR InstName R15
SYMATTR Value 100
SYMBOL res 992 192 R90
WINDOW 0 0 56 VBottom 2
WINDOW 3 32 56 VTop 2
SYMATTR InstName R17
SYMATTR Value 10k
SYMBOL res 1024 224 R270
WINDOW 0 32 56 VTop 2
WINDOW 3 0 56 VBottom 2
SYMATTR InstName R18
SYMATTR Value 7k
SYMBOL Comparators\\LT1720 1056 288 R0
SYMATTR InstName U6
TEXT -1192 -232 Left 2 !.tran 200u
TEXT 264 -72 Left 2 ;Imax= Vin / R4
TEXT -1184 224 Left 2 ;12bit(4096) stepping is verwaarloosd
TEXT -1184 192 Left 2 ;DAC simulator, 3.3V DC sinus
TEXT 1200 -56 Left 2 ;ESD bescherming
TEXT -664 528 Left 2 ;90k-110kHz sallenkeys
TEXT -664 560 Left 2 ;GEEN LC GEBRUIKEN! VEROORZAAKT RINGING
TEXT -664 600 Left 2 ;http://sim.okawa-denshi.jp/en/OPseikiHikeisan.htm
TEXT -664 640 Left 2 ;http://sim.okawa-denshi.jp/en/OPseikiLowkeisan.htm
TEXT -504 176 Left 2 ;LOW
TEXT -496 -384 Left 2 ;HIGH
TEXT 264 -32 Left 2 ;buffered howland
TEXT 1200 -24 Left 2 ;TVS met breakdown ~VCC
TEXT -664 672 Left 2 ;compensatie versterking
TEXT 256 16 Left 2 ;100uA RMS, niet zeker of dat de werkelijke limiet is
TEXT 376 184 Left 2 ;1000x
TEXT 752 272 Left 2 ;1001x
TEXT 240 640 Left 2 ;TRIGGER
TEXT 992 184 Left 2 ;2v
TEXT 240 672 Left 2 ;interupt dac stop
TEXT 952 304 VRight 2 ;kan ook naar ingebouwde comp vanaf hier
RECTANGLE Normal -720 256 -1232 -144 2
RECTANGLE Normal 880 48 224 -464 2
RECTANGLE Normal 1520 0 1168 -336 2
RECTANGLE Normal -960 -192 -1232 -464 2
RECTANGLE Normal 192 704 -688 -464 2
RECTANGLE Normal 1136 -224 912 -448 2
RECTANGLE Normal 1264 704 224 96 2
RECTANGLE Normal 1728 -80 1552 -336 2
